Circuit: *** SPICE deck for cell 8-Bit-RCA{sch} from library ripple_carry_adders

Vgnd: both pins shorted together -- ignoring.
Ignoring BSIM parameter XL
Ignoring BSIM parameter XW
Ignoring BSIM parameter XL
Ignoring BSIM parameter XW
Warning: Pd = 0 is less than W.
Warning: Ps = 0 is less than W.
Warning: Pd = 0 is less than W.
Warning: Ps = 0 is less than W.
Direct Newton iteration for .op point succeeded.

Date: Sat Oct 12 14:54:01 2019
Total elapsed time: 1.082 seconds.

tnom = 27
temp = 27
method = modified trap
totiter = 2121
traniter = 2082
tranpoints = 1042
accept = 1042
rejected = 0
matrix size = 148
fillins = 42
solver = Normal
Thread vector: 262.1/122.1[4] 47.9/33.7[4] 9.7/22.0[1] 1.7/11.5[1]  2592/500
Matrix Compiler1: 19.39 KB object code size  11.7/4.1/[1.8]
Matrix Compiler2: 21.91 KB object code size  4.6/4.9/[2.3]

