Circuit: *** SPICE deck for cell XOR{lay} from library ripple_carry_adders

Vgnd: both pins shorted together -- ignoring.
Ignoring BSIM parameter XL
Ignoring BSIM parameter XW
Ignoring BSIM parameter XL
Ignoring BSIM parameter XW
Direct Newton iteration for .op point succeeded.

Date: Sat Oct 19 12:17:36 2019
Total elapsed time: 0.312 seconds.

tnom = 27
temp = 27
method = modified trap
totiter = 3270
traniter = 3247
tranpoints = 1479
accept = 1362
rejected = 117
matrix size = 12
fillins = 0
solver = Normal
Matrix Compiler1: 928 bytes object code size  0.2/0.1/[0.1]
Matrix Compiler2: off  [0.1]/0.3/0.2

