Circuit: *** SPICE deck for cell xyzw{sch} from library Homework_4

Vgnd: both pins shorted together -- ignoring.
Ignoring BSIM parameter XL
Ignoring BSIM parameter XW
Ignoring BSIM parameter XL
Ignoring BSIM parameter XW
WARNING: Node F is floating.
WARNING: Node OUT is floating.

WARNING: Less than two connections to node F.  This node is used by CLOAD.
WARNING: Less than two connections to node OUT.  This node is used by CLOAD.
Warning: Pd = 0 is less than W.
Warning: Ps = 0 is less than W.
Warning: Pd = 0 is less than W.
Warning: Ps = 0 is less than W.
Direct Newton iteration for .op point succeeded.

Date: Sat Nov 02 23:06:16 2019
Total elapsed time: 0.391 seconds.

tnom = 27
temp = 27
method = modified trap
totiter = 3544
traniter = 3510
tranpoints = 1548
accept = 1514
rejected = 34
matrix size = 18
fillins = 2
solver = Normal
Matrix Compiler1: 870 bytes object code size  0.4/0.2/[0.1]
Matrix Compiler2: 1.41 KB object code size  0.2/0.4/[0.2]

